Input file: student.csv
Output file: ee3491.csv
Time complete is: 2021-Nov-21  22:37:15 
